LTspice 24.1.1 for Windows
Circuit: D:\Dev\DeGaRoR.github.io\LTspice\secondTry.cir
Start Time: Wed Feb  5 15:34:48 2025
More than one analysis specified.